11
AutoTS.T9XnCsLi_qst_0.out
C          0.43234        0.04039       -0.17293
C         -0.90792        0.02990       -0.13783
H          0.99555       -0.87267       -0.31386
H          0.98574        0.96906       -0.18401
H         -1.46641       -0.89722       -0.17942
H         -1.47444        0.94715       -0.03683
O          0.45836        2.14209        2.25721
C          0.65611        1.05464        2.76968
O          0.84110        0.75277        4.00059
O          0.73809       -0.10413        2.08757
Li         0.71921       -1.13008        3.82520
