19

C          1.15380        0.16520       -0.00050
N         -0.00000        0.94490       -0.00310
C          0.66590       -1.25770        0.00020
O          2.29030        0.56750       -0.00070
C         -1.15380        0.16520       -0.00050
C         -0.66590       -1.25770        0.00020
O         -2.29030        0.56750       -0.00070
H         -0.00000        1.95380       -0.00180
H          1.34940       -2.09610        0.00050
H         -1.34940       -2.09610        0.00050
O         -0.80963       -1.86157        2.97945
C         -1.90122       -2.63539        2.76442
C          0.24222       -2.60231        2.76015
C         -1.42923       -3.85254        2.40059
C         -0.12601       -3.78430        2.41213
H         -2.92636       -2.34474        2.86197
H          1.25673       -2.27583        2.85543
H         -2.01666       -4.71106        2.15008
H          0.53552       -4.58939        2.16900
