11

O          0.50549       -0.00760        0.03549
C         -0.73601        0.20372        0.01701
O         -1.24081        1.35863       -0.03542
Li         0.59086        1.88448       -0.03299
O         -1.52724       -0.88492        0.05669
C         -2.94616       -0.65296        0.04834
C         -3.63662       -1.95408        0.15780
H         -3.23060       -0.12451       -0.86839
H         -3.20393        0.01090        0.88649
H         -4.69691       -2.00479       -0.05925
H         -3.14066       -2.80589        0.60770
