11

C         -0.06969        0.10353        0.06024
C          1.39211        0.10098       -0.08993
O          1.99758       -1.31153       -0.14917
C          3.30755       -1.41988       -0.28844
O          4.05637       -0.39400       -0.37180
O          3.79852       -2.59461       -0.33698
Li         5.41754       -1.67780       -0.51231
H         -0.39250       -0.37431        0.99674
H         -0.57364       -0.38568       -0.78607
H          1.91598        0.56991        0.74728
H          1.73495        0.56536       -1.01833
