11

C            0.4323374616      0.0403916398     -0.1729266621
C           -0.9079177499      0.0299008343     -0.1378301387
H            0.9955471813     -0.8726703196     -0.3138585878
H            0.9857381337      0.9690648699     -0.1840108181
H           -1.4664095345     -0.8972224658     -0.1794214420
H           -1.4744363716      0.9471458454     -0.0368346265
O            0.4583550648      2.1420906078      2.2572142178
C            0.6561058696      1.0546434402      2.7696845840
O            0.8410957658      0.7527708483      4.0005871559
O            0.7380873280     -0.1041327212      2.0875720776
Li           0.7192091925     -1.1300750383      3.8252032306