13

C         -2.27837        1.17365        0.19606
O          0.24134        0.73837       -0.23263
C          0.15788       -0.46960        0.12527
C         -1.19971       -1.05462        0.49142
C         -2.28259       -0.18992       -0.09486
O          1.18956       -1.18357        0.21233
H         -1.26898       -2.08822        0.13918
H         -1.24316       -1.07296        1.59023
H         -2.72709       -0.48620       -1.04925
H         -3.21640       -0.06279        0.62738
H         -2.89411        1.86986       -0.38044
H         -1.78992        1.54410        1.10002
Mg         2.37229        0.45110       -0.40080
